Version 4
SHEET 1 2816 1276
WIRE -768 -144 -848 -144
WIRE -768 -112 -768 -144
WIRE -848 -80 -848 -144
WIRE 384 -80 384 -112
WIRE 192 -48 160 -48
WIRE 288 -48 256 -48
WIRE -1104 -32 -1232 -32
WIRE 384 -32 384 -80
WIRE -768 -16 -768 -32
WIRE -752 -16 -768 -16
WIRE -704 -16 -752 -16
WIRE -608 -16 -624 -16
WIRE -1792 32 -1904 32
WIRE -1632 32 -1712 32
WIRE -1232 32 -1232 -32
WIRE -1200 32 -1232 32
WIRE -1104 48 -1104 -32
WIRE -1104 48 -1136 48
WIRE -976 48 -1104 48
WIRE -832 48 -896 48
WIRE -1200 64 -1296 64
WIRE -80 80 -192 80
WIRE 160 80 160 -48
WIRE 160 80 0 80
WIRE 176 80 160 80
WIRE 288 96 288 -48
WIRE 288 96 240 96
WIRE 432 96 288 96
WIRE -1904 112 -1904 32
WIRE -752 112 -752 -16
WIRE -704 112 -752 112
WIRE 176 112 32 112
WIRE 240 112 240 96
WIRE 576 112 496 112
WIRE 640 112 576 112
WIRE -608 128 -608 -16
WIRE -608 128 -640 128
WIRE -544 128 -608 128
WIRE -192 128 -192 80
WIRE -192 128 -272 128
WIRE 384 128 384 48
WIRE 432 128 384 128
WIRE -2208 144 -2208 112
WIRE -976 144 -1152 144
WIRE -832 144 -832 48
WIRE -832 144 -896 144
WIRE -704 144 -832 144
WIRE -192 160 -192 128
WIRE -144 160 -192 160
WIRE -16 160 -64 160
WIRE 32 160 32 112
WIRE 32 160 -16 160
WIRE -16 192 -16 160
WIRE 384 224 384 128
WIRE 432 224 384 224
WIRE 576 224 576 112
WIRE 576 224 512 224
WIRE -2048 240 -2048 224
WIRE -2048 240 -2096 240
WIRE -2048 256 -2048 240
WIRE 160 272 160 80
WIRE -16 288 -16 272
WIRE 384 288 384 224
WIRE 160 400 160 352
WIRE 576 480 576 224
WIRE 576 480 208 480
WIRE 160 560 160 496
FLAG -16 288 0
FLAG 160 560 0
FLAG 464 144 0
FLAG -1824 192 0
FLAG 384 368 0
FLAG 208 128 0
FLAG -2096 240 0
FLAG -2048 144 4.2V
FLAG 208 64 4.2V
FLAG -1632 32 Vx
FLAG 464 80 4.2V
FLAG -672 160 0
FLAG -672 96 4.2V
FLAG -848 -80 0
FLAG -1168 80 0
FLAG -1168 16 4.2V
FLAG 384 -80 4.2V
FLAG -2048 336 -4.2V
FLAG -544 128 Vx+Offset
FLAG -272 128 Vx+Offset
FLAG -2208 224 0
FLAG -2208 112 Offset
FLAG -1152 144 Offset
FLAG 640 112 f_V
FLAG -1904 192 0
FLAG -1296 64 Vx
SYMBOL res -160 176 R270
WINDOW 0 32 56 VTop 2
WINDOW 3 0 56 VBottom 2
SYMATTR InstName R2
SYMATTR Value 10k
SYMBOL res -96 96 R270
WINDOW 0 32 56 VTop 2
WINDOW 3 0 56 VBottom 2
SYMATTR InstName R3
SYMATTR Value 10k
SYMBOL res 368 272 R0
WINDOW 0 33 42 Left 2
SYMATTR InstName R4
SYMATTR Value 10k
SYMBOL res 368 -48 R0
SYMATTR InstName R5
SYMATTR Value 10k
SYMBOL res -32 176 R0
SYMATTR InstName R7
SYMATTR Value 10k
SYMBOL cap 256 -64 R90
WINDOW 0 0 32 VBottom 2
WINDOW 3 32 32 VTop 2
SYMATTR InstName C1
SYMATTR Value 10n
SYMBOL Contrib\\Toshiba\\lvmos\\T2N7002AK_G0_00 208 400 M0
SYMATTR InstName U3
SYMBOL voltage -1824 96 R0
WINDOW 123 0 0 Left 0
WINDOW 39 0 0 Left 0
SYMATTR InstName V7
SYMATTR Value PULSE(0 2 0 200m 200m 0 400m)
SYMBOL res 144 256 R0
SYMATTR InstName R1
SYMATTR Value 5k
SYMBOL voltage -2048 128 R0
WINDOW 123 0 0 Left 0
WINDOW 39 0 0 Left 0
SYMATTR InstName V8
SYMATTR Value 4.2V
SYMBOL OpAmps\\AD8538 208 32 R0
SYMATTR InstName U5
SYMBOL res -1696 16 R90
WINDOW 0 0 56 VBottom 2
WINDOW 3 32 56 VTop 2
SYMATTR InstName R9
SYMATTR Value 10
SYMBOL OpAmps\\AD8628 -672 64 R0
SYMATTR InstName U1
SYMBOL res -880 32 R90
WINDOW 0 0 56 VBottom 2
WINDOW 3 32 56 VTop 2
SYMATTR InstName R8
SYMATTR Value 10k
SYMBOL res -880 128 R90
WINDOW 0 0 56 VBottom 2
WINDOW 3 32 56 VTop 2
SYMATTR InstName R10
SYMATTR Value 10k
SYMBOL res -608 -32 R90
WINDOW 0 0 56 VBottom 2
WINDOW 3 32 56 VTop 2
SYMATTR InstName R11
SYMATTR Value 10k
SYMBOL res -752 -16 R180
WINDOW 0 36 76 Left 2
WINDOW 3 36 40 Left 2
SYMATTR InstName R12
SYMATTR Value 10k
SYMBOL OpAmps\\AD8628 -1168 -16 R0
SYMATTR InstName U6
SYMBOL res 528 208 R90
WINDOW 0 0 56 VBottom 2
WINDOW 3 32 56 VTop 2
SYMATTR InstName R6
SYMATTR Value 10k
SYMBOL voltage -2048 240 R0
WINDOW 123 0 0 Left 0
WINDOW 39 0 0 Left 0
SYMATTR InstName V4
SYMATTR Value 4.2V
SYMBOL voltage -2208 128 R0
WINDOW 123 0 0 Left 0
WINDOW 39 0 0 Left 0
SYMATTR InstName V5
SYMATTR Value 1
SYMBOL voltage -1904 96 R0
WINDOW 123 0 0 Left 0
WINDOW 39 0 0 Left 0
SYMATTR InstName V1
SYMATTR Value 2
SYMBOL OpAmps\\LT1365 464 48 R0
SYMATTR InstName U2
TEXT -1848 248 Left 2 !.tran 200m
TEXT -1848 280 Left 2 ;.dc V7 0 8 0.2
